# generated using pymatgen
data_SiC
_symmetry_space_group_name_H-M   P6_3mc
_cell_length_a   3.07648468
_cell_length_b   3.07648468
_cell_length_c   40.26768340
_cell_angle_alpha   90.00000000
_cell_angle_beta   90.00000000
_cell_angle_gamma   120.00000000
_symmetry_Int_Tables_number   186
_chemical_formula_structural   SiC
_chemical_formula_sum   'Si16 C16'
_cell_volume   330.06295983
_cell_formula_units_Z   16
loop_
 _symmetry_equiv_pos_site_id
 _symmetry_equiv_pos_as_xyz
  1  'x, y, z'
  2  'x-y, x, z+1/2'
  3  '-y, x-y, z'
  4  '-x, -y, z+1/2'
  5  '-x+y, -x, z'
  6  'y, -x+y, z+1/2'
  7  'y, x, z+1/2'
  8  'x, x-y, z'
  9  'x-y, -y, z+1/2'
  10  '-y, -x, z'
  11  '-x, -x+y, z+1/2'
  12  '-x+y, y, z'
loop_
 _atom_type_symbol
 _atom_type_oxidation_number
  Si4+  4.0
  C4-  -4.0
loop_
 _atom_site_type_symbol
 _atom_site_label
 _atom_site_symmetry_multiplicity
 _atom_site_fract_x
 _atom_site_fract_y
 _atom_site_fract_z
 _atom_site_occupancy
  Si4+  Si0  2  0.00000000  0.00000000  0.12491553  1
  Si4+  Si1  2  0.00000000  0.00000000  0.24998077  1
  Si4+  Si2  2  0.00000000  0.00000000  0.37502844  1
  Si4+  Si3  2  0.33333333  0.66666667  0.18746462  1
  Si4+  Si4  2  0.33333333  0.66666667  0.43744337  1
  Si4+  Si5  2  0.33333333  0.66666667  0.56248732  1
  Si4+  Si6  2  0.33333333  0.66666667  0.81251166  1
  Si4+  Si7  2  0.33333333  0.66666667  0.99997315  1
  C4-  C8  2  0.00000000  0.00000000  0.17178814  1
  C4-  C9  2  0.00000000  0.00000000  0.29683349  1
  C4-  C10  2  0.00000000  0.00000000  0.42189534  1
  C4-  C11  2  0.33333333  0.66666667  0.04697750  1
  C4-  C12  2  0.33333333  0.66666667  0.23447507  1
  C4-  C13  2  0.33333333  0.66666667  0.48430688  1
  C4-  C14  2  0.33333333  0.66666667  0.60935718  1
  C4-  C15  2  0.33333333  0.66666667  0.85952155  1
